L24/1726535/Chaves.dss
! ==========================================================
! CHAVES — geradas de UNSEMT (Line com Switch=Y)
! ==========================================================
! 16 chave(s) omitida(s): os dois PACs fora da rede de MT deste alimentador, o que criaria ilha flutuante — ex.: 198159853, 198159767, 198160007
New Line.1858134173 Phases=1 Bus1=node_2178776038.1 Bus2=node_2178776065.1 Switch=Y r1=1e-4 x1=1e-4 r0=1e-4 x0=1e-4 normamps=9999
New Line.1730495145 Phases=1 Bus1=node_2056453060.1 Bus2=node_2056453126.1 Switch=Y r1=1e-4 x1=1e-4 r0=1e-4 x0=1e-4 normamps=9999
New Line.1730495128 Phases=1 Bus1=node_2056452540.1 Bus2=node_2056453084.1 Switch=Y r1=1e-4 x1=1e-4 r0=1e-4 x0=1e-4 normamps=9999
New Line.2259327484 Phases=1 Bus1=node_2520386814.1 Bus2=node_2520387090.1 Switch=Y r1=1e-4 x1=1e-4 r0=1e-4 x0=1e-4 normamps=9999
New Line.2259327416 Phases=1 Bus1=node_2520386854.1 Bus2=node_2520386967.1 Switch=Y r1=1e-4 x1=1e-4 r0=1e-4 x0=1e-4 normamps=9999
New Line.1429768908 Phases=1 Bus1=100_1429768927.2 Bus2=100_1429768926.2 Switch=Y r1=1e-4 x1=1e-4 r0=1e-4 x0=1e-4 normamps=9999
New Line.1388228758 Phases=1 Bus1=node_1327803817.1 Bus2=node_1683145062.1 Switch=Y r1=1e-4 x1=1e-4 r0=1e-4 x0=1e-4 normamps=9999
New Line.349259606 Phases=1 Bus1=100_349259619.2 Bus2=100_349259620.2 Switch=Y r1=1e-4 x1=1e-4 r0=1e-4 x0=1e-4 normamps=9999
New Line.341215224 Phases=1 Bus1=node_429080455.1 Bus2=node_2473082274.1 Switch=Y r1=1e-4 x1=1e-4 r0=1e-4 x0=1e-4 normamps=9999
New Line.336286895 Phases=3 Bus1=node_532297868.1.2.3 Bus2=node_532297869.1.2.3 Switch=Y r1=1e-4 x1=1e-4 r0=1e-4 x0=1e-4 normamps=9999
New Line.342006995 Phases=1 Bus1=node_535715392.3 Bus2=node_535715393.3 Switch=Y r1=1e-4 x1=1e-4 r0=1e-4 x0=1e-4 normamps=9999
New Line.339770317 Phases=1 Bus1=node_533906325.1 Bus2=node_533906326.1 Switch=Y r1=1e-4 x1=1e-4 r0=1e-4 x0=1e-4 normamps=9999
New Line.338404040 Phases=1 Bus1=node_533195850.2 Bus2=node_533195851.2 Switch=Y r1=1e-4 x1=1e-4 r0=1e-4 x0=1e-4 normamps=9999
New Line.341574557 Phases=1 Bus1=node_535204294.2 Bus2=node_535204295.2 Switch=Y r1=1e-4 x1=1e-4 r0=1e-4 x0=1e-4 normamps=9999
New Line.341214960 Phases=1 Bus1=node_534684331.2 Bus2=node_534684332.2 Switch=Y r1=1e-4 x1=1e-4 r0=1e-4 x0=1e-4 normamps=9999
New Line.337408486 Phases=3 Bus1=node_532554216.1.2.3 Bus2=node_532554217.1.2.3 Switch=Y r1=1e-4 x1=1e-4 r0=1e-4 x0=1e-4 normamps=9999
New Line.2395914595 Phases=3 Bus1=node_435287406.1.2.3 Bus2=node_2579818541.1.2.3 Switch=Y r1=1e-4 x1=1e-4 r0=1e-4 x0=1e-4 normamps=9999
New Line.341574523 Phases=3 Bus1=node_535204204.1.2.3 Bus2=node_535204205.1.2.3 Switch=Y r1=1e-4 x1=1e-4 r0=1e-4 x0=1e-4 normamps=9999
New Line.341843790 Phases=1 Bus1=node_535318616.2 Bus2=node_535318617.2 Switch=Y r1=1e-4 x1=1e-4 r0=1e-4 x0=1e-4 normamps=9999
New Line.339298005 Phases=3 Bus1=node_533668756.1.2.3 Bus2=node_533668757.1.2.3 Switch=Y r1=1e-4 x1=1e-4 r0=1e-4 x0=1e-4 normamps=9999
New Line.340211099 Phases=3 Bus1=node_534144989.1.2.3 Bus2=node_534144990.1.2.3 Switch=Y r1=1e-4 x1=1e-4 r0=1e-4 x0=1e-4 normamps=9999
New Line.339296483 Phases=1 Bus1=node_533553690.2 Bus2=node_533553691.2 Switch=Y r1=1e-4 x1=1e-4 r0=1e-4 x0=1e-4 normamps=9999
New Line.349259710 Phases=1 Bus1=100_349259724.2 Bus2=100_349259723.2 Switch=Y r1=1e-4 x1=1e-4 r0=1e-4 x0=1e-4 normamps=9999
New Line.1683617364 Phases=1 Bus1=node_2008711809.1 Bus2=node_2008711961.1 Switch=Y r1=1e-4 x1=1e-4 r0=1e-4 x0=1e-4 normamps=9999
New Line.339295369 Phases=1 Bus1=node_533456321.3 Bus2=node_533456322.3 Switch=Y r1=1e-4 x1=1e-4 r0=1e-4 x0=1e-4 normamps=9999
New Line.338403597 Phases=1 Bus1=node_533194677.2 Bus2=node_533194678.2 Switch=Y r1=1e-4 x1=1e-4 r0=1e-4 x0=1e-4 normamps=9999
New Line.337408480 Phases=1 Bus1=node_532554198.2 Bus2=node_532554199.2 Switch=Y r1=1e-4 x1=1e-4 r0=1e-4 x0=1e-4 normamps=9999
New Line.342006988 Phases=1 Bus1=node_535715371.2 Bus2=node_535715372.2 Switch=Y r1=1e-4 x1=1e-4 r0=1e-4 x0=1e-4 normamps=9999
New Line.337930003 Phases=3 Bus1=node_532864273.1.2.3 Bus2=node_444413812.1.2.3 Switch=Y r1=1e-4 x1=1e-4 r0=1e-4 x0=1e-4 normamps=9999
New Line.341217013 Phases=3 Bus1=node_534891587.1.2.3 Bus2=node_534891588.1.2.3 Switch=Y r1=1e-4 x1=1e-4 r0=1e-4 x0=1e-4 normamps=9999
New Line.2070657144 Phases=1 Bus1=node_2383380735.1 Bus2=node_2383380864.1 Switch=Y r1=1e-4 x1=1e-4 r0=1e-4 x0=1e-4 normamps=9999
New Line.341214954 Phases=1 Bus1=node_534684313.2 Bus2=node_534684314.2 Switch=Y r1=1e-4 x1=1e-4 r0=1e-4 x0=1e-4 normamps=9999
New Line.340529427 Phases=1 Bus1=node_534349610.2 Bus2=node_534349611.2 Switch=Y r1=1e-4 x1=1e-4 r0=1e-4 x0=1e-4 normamps=9999
New Line.341574602 Phases=1 Bus1=node_535204393.2 Bus2=node_535204394.2 Switch=Y r1=1e-4 x1=1e-4 r0=1e-4 x0=1e-4 normamps=9999
New Line.337408474 Phases=1 Bus1=node_532554180.2 Bus2=node_532554181.2 Switch=Y r1=1e-4 x1=1e-4 r0=1e-4 x0=1e-4 normamps=9999
New Line.339770893 Phases=3 Bus1=node_534023849.1.2.3 Bus2=node_534023850.1.2.3 Switch=Y r1=1e-4 x1=1e-4 r0=1e-4 x0=1e-4 normamps=9999
New Line.340970823 Phases=3 Bus1=node_534499166.1.2.3 Bus2=node_534499167.1.2.3 Switch=Y r1=1e-4 x1=1e-4 r0=1e-4 x0=1e-4 normamps=9999
New Line.2181781462 Phases=1 Bus1=node_427109319.1 Bus2=node_2488403176.1 Switch=Y r1=1e-4 x1=1e-4 r0=1e-4 x0=1e-4 normamps=9999
New Line.2595847649 Phases=1 Bus1=node_1140298147.1 Bus2=node_2748984783.1 Switch=Y r1=1e-4 x1=1e-4 r0=1e-4 x0=1e-4 normamps=9999
New Line.2233378363 Phases=1 Bus1=node_2538926749.2 Bus2=node_2538926936.2 Switch=Y r1=1e-4 x1=1e-4 r0=1e-4 x0=1e-4 normamps=9999
New Line.336287857 Phases=3 Bus1=node_532299684.1.2.3 Bus2=node_532299685.1.2.3 Switch=Y r1=1e-4 x1=1e-4 r0=1e-4 x0=1e-4 normamps=9999
New Line.349258131 Phases=3 Bus1=100_349258121.1.2.3 Bus2=100_349258100.1.2.3 Switch=Y r1=1e-4 x1=1e-4 r0=1e-4 x0=1e-4 normamps=9999
New Line.349259595 Phases=3 Bus1=100_349259564.1.2.3 Bus2=100_349259585.1.2.3 Switch=Y r1=1e-4 x1=1e-4 r0=1e-4 x0=1e-4 normamps=9999
New Line.341215989 Phases=1 Bus1=node_534794348.2 Bus2=node_534794349.2 Switch=Y r1=1e-4 x1=1e-4 r0=1e-4 x0=1e-4 normamps=9999
New Line.349259551 Phases=3 Bus1=100_349259541.1.2.3 Bus2=100_349259520.1.2.3 Switch=Y r1=1e-4 x1=1e-4 r0=1e-4 x0=1e-4 normamps=9999
New Line.349258087 Phases=3 Bus1=100_1408286024.1.2.3 Bus2=100_1408286023.1.2.3 Switch=Y r1=1e-4 x1=1e-4 r0=1e-4 x0=1e-4 normamps=9999
New Line.340211475 Phases=3 Bus1=node_534145662.1.2.3 Bus2=node_534145663.1.2.3 Switch=Y r1=1e-4 x1=1e-4 r0=1e-4 x0=1e-4 normamps=9999
New Line.340211498 Phases=3 Bus1=node_534145709.1.2.3 Bus2=node_534145710.1.2.3 Switch=Y r1=1e-4 x1=1e-4 r0=1e-4 x0=1e-4 normamps=9999
New Line.345081442 Phases=3 Bus1=node_428029639.1.2.3 Bus2=node_701781304.1.2.3 Switch=Y r1=1e-4 x1=1e-4 r0=1e-4 x0=1e-4 normamps=9999
New Line.341570753 Phases=3 Bus1=node_534894612.1.2.3 Bus2=node_534894613.1.2.3 Switch=Y r1=1e-4 x1=1e-4 r0=1e-4 x0=1e-4 normamps=9999
New Line.336288566 Phases=3 Bus1=node_532300953.1.2.3 Bus2=node_532300954.1.2.3 Switch=Y r1=1e-4 x1=1e-4 r0=1e-4 x0=1e-4 normamps=9999
New Line.338968712 Phases=1 Bus1=node_533299724.2 Bus2=node_533299725.2 Switch=Y r1=1e-4 x1=1e-4 r0=1e-4 x0=1e-4 normamps=9999
New Line.337409525 Phases=1 Bus1=node_532724500.1 Bus2=node_532724501.1 Switch=Y r1=1e-4 x1=1e-4 r0=1e-4 x0=1e-4 normamps=9999
New Line.336287078 Phases=1 Bus1=node_532298207.2 Bus2=node_532298208.2 Switch=Y r1=1e-4 x1=1e-4 r0=1e-4 x0=1e-4 normamps=9999
New Line.338404653 Phases=3 Bus1=node_533197437.1.2.3 Bus2=node_533197438.1.2.3 Switch=Y r1=1e-4 x1=1e-4 r0=1e-4 x0=1e-4 normamps=9999
New Line.337409496 Phases=1 Bus1=node_532724425.2 Bus2=node_532724426.2 Switch=Y r1=1e-4 x1=1e-4 r0=1e-4 x0=1e-4 normamps=9999
New Line.341217884 Phases=3 Bus1=node_534893222.1.2.3 Bus2=node_534893223.1.2.3 Switch=Y r1=1e-4 x1=1e-4 r0=1e-4 x0=1e-4 normamps=9999
New Line.337930313 Phases=3 Bus1=node_532864868.1.2.3 Bus2=node_532864869.1.2.3 Switch=Y r1=1e-4 x1=1e-4 r0=1e-4 x0=1e-4 normamps=9999
New Line.341842943 Phases=3 Bus1=node_535317033.1.2.3 Bus2=node_535317034.1.2.3 Switch=Y r1=1e-4 x1=1e-4 r0=1e-4 x0=1e-4 normamps=9999
New Line.340209429 Phases=1 Bus1=node_534025257.2 Bus2=node_534025258.2 Switch=Y r1=1e-4 x1=1e-4 r0=1e-4 x0=1e-4 normamps=9999
New Line.341841749 Phases=3 Bus1=node_535206828.1.2.3 Bus2=node_535206829.1.2.3 Switch=Y r1=1e-4 x1=1e-4 r0=1e-4 x0=1e-4 normamps=9999
New Line.337930323 Phases=3 Bus1=node_532864886.1.2.3 Bus2=node_532864887.1.2.3 Switch=Y r1=1e-4 x1=1e-4 r0=1e-4 x0=1e-4 normamps=9999
New Line.337930808 Phases=3 Bus1=node_532865815.1.2.3 Bus2=node_532865816.1.2.3 Switch=Y r1=1e-4 x1=1e-4 r0=1e-4 x0=1e-4 normamps=9999
New Line.336286067 Phases=1 Bus1=node_531170664.2 Bus2=node_531170665.2 Switch=Y r1=1e-4 x1=1e-4 r0=1e-4 x0=1e-4 normamps=9999
New Line.340969983 Phases=3 Bus1=node_534497595.1.2.3 Bus2=node_534497596.1.2.3 Switch=Y r1=1e-4 x1=1e-4 r0=1e-4 x0=1e-4 normamps=9999
New Line.341841859 Phases=3 Bus1=node_535207110.1.2.3 Bus2=node_535207111.1.2.3 Switch=Y r1=1e-4 x1=1e-4 r0=1e-4 x0=1e-4 normamps=9999
New Line.339298056 Phases=1 Bus1=node_533668843.2 Bus2=node_533668844.2 Switch=Y r1=1e-4 x1=1e-4 r0=1e-4 x0=1e-4 normamps=9999
New Line.339296489 Phases=1 Bus1=node_533553708.1 Bus2=node_533553709.1 Switch=Y r1=1e-4 x1=1e-4 r0=1e-4 x0=1e-4 normamps=9999
New Line.340209477 Phases=1 Bus1=node_534025377.2 Bus2=node_534025378.2 Switch=Y r1=1e-4 x1=1e-4 r0=1e-4 x0=1e-4 normamps=9999
New Line.338968768 Phases=1 Bus1=node_533299834.2 Bus2=node_533299835.2 Switch=Y r1=1e-4 x1=1e-4 r0=1e-4 x0=1e-4 normamps=9999
New Line.336286074 Phases=3 Bus1=node_531170685.1.2.3 Bus2=node_531170686.1.2.3 Switch=Y r1=1e-4 x1=1e-4 r0=1e-4 x0=1e-4 normamps=9999
New Line.337931668 Phases=3 Bus1=node_532867410.1.2.3 Bus2=node_532867409.1.2.3 Switch=Y r1=1e-4 x1=1e-4 r0=1e-4 x0=1e-4 normamps=9999
New Line.339297852 Phases=3 Bus1=node_533668477.1.2.3 Bus2=node_533668478.1.2.3 Switch=Y r1=1e-4 x1=1e-4 r0=1e-4 x0=1e-4 normamps=9999
New Line.338968557 Phases=3 Bus1=node_533299427.1.2.3 Bus2=node_533299428.1.2.3 Switch=Y r1=1e-4 x1=1e-4 r0=1e-4 x0=1e-4 normamps=9999
New Line.345607630 Phases=1 Bus1=node_539700013.2 Bus2=node_539700014.2 Switch=Y r1=1e-4 x1=1e-4 r0=1e-4 x0=1e-4 normamps=9999
New Line.340211486 Phases=3 Bus1=node_534145684.1.2.3 Bus2=node_534145683.1.2.3 Switch=Y r1=1e-4 x1=1e-4 r0=1e-4 x0=1e-4 normamps=9999
New Line.337930902 Phases=3 Bus1=node_532865998.1.2.3 Bus2=node_532865999.1.2.3 Switch=Y r1=1e-4 x1=1e-4 r0=1e-4 x0=1e-4 normamps=9999
New Line.341843371 Phases=3 Bus1=node_535317854.1.2.3 Bus2=node_535317853.1.2.3 Switch=Y r1=1e-4 x1=1e-4 r0=1e-4 x0=1e-4 normamps=9999
New Line.337931275 Phases=3 Bus1=node_532866680.1.2.3 Bus2=node_532866681.1.2.3 Switch=Y r1=1e-4 x1=1e-4 r0=1e-4 x0=1e-4 normamps=9999
New Line.341844104 Phases=1 Bus1=node_535319222.2 Bus2=node_535319223.2 Switch=Y r1=1e-4 x1=1e-4 r0=1e-4 x0=1e-4 normamps=9999
New Line.340211442 Phases=3 Bus1=node_534145603.1.2.3 Bus2=node_534145604.1.2.3 Switch=Y r1=1e-4 x1=1e-4 r0=1e-4 x0=1e-4 normamps=9999
New Line.340970741 Phases=3 Bus1=node_534499012.1.2.3 Bus2=node_534499011.1.2.3 Switch=Y r1=1e-4 x1=1e-4 r0=1e-4 x0=1e-4 normamps=9999
New Line.338969504 Phases=3 Bus1=node_533301196.1.2.3 Bus2=node_533301197.1.2.3 Switch=Y r1=1e-4 x1=1e-4 r0=1e-4 x0=1e-4 normamps=9999
New Line.339298234 Phases=3 Bus1=node_533669175.1.2.3 Bus2=node_533669176.1.2.3 Switch=Y r1=1e-4 x1=1e-4 r0=1e-4 x0=1e-4 normamps=9999
New Line.338969514 Phases=3 Bus1=node_533301215.1.2.3 Bus2=node_533301214.1.2.3 Switch=Y r1=1e-4 x1=1e-4 r0=1e-4 x0=1e-4 normamps=9999
New Line.339298643 Phases=3 Bus1=node_533669912.1.2.3 Bus2=node_533669913.1.2.3 Switch=Y r1=1e-4 x1=1e-4 r0=1e-4 x0=1e-4 normamps=9999
New Line.340211912 Phases=3 Bus1=node_534146468.1.2.3 Bus2=node_534146469.1.2.3 Switch=Y r1=1e-4 x1=1e-4 r0=1e-4 x0=1e-4 normamps=9999
New Line.336287846 Phases=3 Bus1=node_532299664.1.2.3 Bus2=node_532299663.1.2.3 Switch=Y r1=1e-4 x1=1e-4 r0=1e-4 x0=1e-4 normamps=9999
New Line.338968774 Phases=3 Bus1=node_533299852.1.2.3 Bus2=node_533299853.1.2.3 Switch=Y r1=1e-4 x1=1e-4 r0=1e-4 x0=1e-4 normamps=9999
New Line.338968567 Phases=3 Bus1=node_533299445.1.2.3 Bus2=node_533299446.1.2.3 Switch=Y r1=1e-4 x1=1e-4 r0=1e-4 x0=1e-4 normamps=9999
New Line.339297985 Phases=3 Bus1=node_533668720.1.2.3 Bus2=node_533668721.1.2.3 Switch=Y r1=1e-4 x1=1e-4 r0=1e-4 x0=1e-4 normamps=9999
New Line.336287669 Phases=3 Bus1=node_532299334.1.2.3 Bus2=node_532299335.1.2.3 Switch=Y r1=1e-4 x1=1e-4 r0=1e-4 x0=1e-4 normamps=9999
New Line.340969930 Phases=3 Bus1=node_534497484.1.2.3 Bus2=node_534497485.1.2.3 Switch=Y r1=1e-4 x1=1e-4 r0=1e-4 x0=1e-4 normamps=9999
New Line.340970729 Phases=3 Bus1=node_534498993.1.2.3 Bus2=node_534498994.1.2.3 Switch=Y r1=1e-4 x1=1e-4 r0=1e-4 x0=1e-4 normamps=9999
New Line.339297597 Phases=1 Bus1=node_533667986.2 Bus2=node_533667987.2 Switch=Y r1=1e-4 x1=1e-4 r0=1e-4 x0=1e-4 normamps=9999
New Line.336285944 Phases=1 Bus1=node_531170331.2 Bus2=node_531170332.2 Switch=Y r1=1e-4 x1=1e-4 r0=1e-4 x0=1e-4 normamps=9999
New Line.341843353 Phases=3 Bus1=node_535317823.1.2.3 Bus2=node_535317824.1.2.3 Switch=Y r1=1e-4 x1=1e-4 r0=1e-4 x0=1e-4 normamps=9999
New Line.343703221 Phases=1 Bus1=node_539324368.1 Bus2=node_539324369.1 Switch=Y r1=1e-4 x1=1e-4 r0=1e-4 x0=1e-4 normamps=9999
New Line.345656920 Phases=3 Bus1=node_539846305.1.2.3 Bus2=node_539846306.1.2.3 Switch=Y r1=1e-4 x1=1e-4 r0=1e-4 x0=1e-4 normamps=9999
New Line.343703233 Phases=3 Bus1=node_539324404.1.2.3 Bus2=node_539324405.1.2.3 Switch=Y r1=1e-4 x1=1e-4 r0=1e-4 x0=1e-4 normamps=9999
New Line.337409366 Phases=1 Bus1=node_532724071.1 Bus2=node_532724072.1 Switch=Y r1=1e-4 x1=1e-4 r0=1e-4 x0=1e-4 normamps=9999
New Line.338404530 Phases=1 Bus1=node_533197110.1 Bus2=node_533197111.1 Switch=Y r1=1e-4 x1=1e-4 r0=1e-4 x0=1e-4 normamps=9999
New Line.339771230 Phases=1 Bus1=node_534024682.2 Bus2=node_534024683.2 Switch=Y r1=1e-4 x1=1e-4 r0=1e-4 x0=1e-4 normamps=9999
New Line.340970006 Phases=1 Bus1=100_2043755170.2 Bus2=100_2043755171.2 Switch=Y r1=1e-4 x1=1e-4 r0=1e-4 x0=1e-4 normamps=9999
New Line.341217984 Phases=1 Bus1=node_534893402.2 Bus2=node_534893403.2 Switch=Y r1=1e-4 x1=1e-4 r0=1e-4 x0=1e-4 normamps=9999
New Line.1066814935 Phases=3 Bus1=node_2734840831.1.2.3 Bus2=node_2734840915.1.2.3 Switch=Y r1=1e-4 x1=1e-4 r0=1e-4 x0=1e-4 normamps=9999
New Line.341214966 Phases=3 Bus1=100_2646650006.1.2.3 Bus2=100_2646650005.1.2.3 Switch=Y r1=1e-4 x1=1e-4 r0=1e-4 x0=1e-4 normamps=9999
New Line.541018307 Phases=1 Bus1=node_811042204.2 Bus2=node_811042327.2 Switch=Y r1=1e-4 x1=1e-4 r0=1e-4 x0=1e-4 normamps=9999
New Line.341844179 Phases=3 Bus1=node_535319351.1.2.3 Bus2=node_535319352.1.2.3 Switch=Y r1=1e-4 x1=1e-4 r0=1e-4 x0=1e-4 normamps=9999
New Line.340212065 Phases=3 Bus1=node_534146729.1.2.3 Bus2=node_534146730.1.2.3 Switch=Y r1=1e-4 x1=1e-4 r0=1e-4 x0=1e-4 normamps=9999
New Line.339294853 Phases=3 Bus1=node_427110203.1.2.3 Bus2=node_1906194536.1.2.3 Switch=Y r1=1e-4 x1=1e-4 r0=1e-4 x0=1e-4 normamps=9999
New Line.341215617 Phases=3 Bus1=node_534793436.1.2.3 Bus2=node_534793437.1.2.3 Switch=Y r1=1e-4 x1=1e-4 r0=1e-4 x0=1e-4 normamps=9999
New Line.340970811 Phases=3 Bus1=node_534499148.1.2.3 Bus2=node_534499149.1.2.3 Switch=Y r1=1e-4 x1=1e-4 r0=1e-4 x0=1e-4 normamps=9999
New Line.1585836376 Phases=3 Bus1=node_427110202.1.2.3 Bus2=node_1906194544.1.2.3 Switch=Y r1=1e-4 x1=1e-4 r0=1e-4 x0=1e-4 normamps=9999
New Line.2646649934 Phases=3 Bus1=100_2646650006.1.2.3 Bus2=100_2646650005.1.2.3 Switch=Y r1=1e-4 x1=1e-4 r0=1e-4 x0=1e-4 normamps=9999
New Line.797687795 Phases=3 Bus1=node_2136569987.1.2.3 Bus2=node_1068729369.1.2.3 Switch=Y r1=1e-4 x1=1e-4 r0=1e-4 x0=1e-4 normamps=9999
New Line.1652661893 Phases=1 Bus1=node_444095521.1 Bus2=node_1973234868.1 Switch=Y r1=1e-4 x1=1e-4 r0=1e-4 x0=1e-4 normamps=9999
New Line.349258024 Phases=1 Bus1=100_1708226238.1 Bus2=100_1708226237.1 Switch=Y r1=1e-4 x1=1e-4 r0=1e-4 x0=1e-4 normamps=9999
New Line.1856107338 Phases=1 Bus1=node_2176834948.2 Bus2=node_2176834949.2 Switch=Y r1=1e-4 x1=1e-4 r0=1e-4 x0=1e-4 normamps=9999
New Line.2673826579 Phases=3 Bus1=node_2740135191.1.2.3 Bus2=node_2837964008.1.2.3 Switch=Y r1=1e-4 x1=1e-4 r0=1e-4 x0=1e-4 normamps=9999
New Line.338969486 Phases=1 Bus1=node_533301160.2 Bus2=node_533301161.2 Switch=Y r1=1e-4 x1=1e-4 r0=1e-4 x0=1e-4 normamps=9999
New Line.337929859 Phases=1 Bus1=node_532863972.2 Bus2=node_532863973.2 Switch=Y r1=1e-4 x1=1e-4 r0=1e-4 x0=1e-4 normamps=9999
New Line.763722579 Phases=1 Bus1=node_1036829976.2 Bus2=node_1036829977.2 Switch=Y r1=1e-4 x1=1e-4 r0=1e-4 x0=1e-4 normamps=9999
New Line.345388624 Phases=1 Bus1=node_539351726.2 Bus2=node_539351727.2 Switch=Y r1=1e-4 x1=1e-4 r0=1e-4 x0=1e-4 normamps=9999
New Line.770214811 Phases=1 Bus1=node_1043180212.2 Bus2=node_1043180213.2 Switch=Y r1=1e-4 x1=1e-4 r0=1e-4 x0=1e-4 normamps=9999
New Line.770292158 Phases=1 Bus1=node_1043257568.1 Bus2=node_1043257569.1 Switch=Y r1=1e-4 x1=1e-4 r0=1e-4 x0=1e-4 normamps=9999
New Line.955071793 Phases=1 Bus1=node_1287573929.3 Bus2=node_1287573952.3 Switch=Y r1=1e-4 x1=1e-4 r0=1e-4 x0=1e-4 normamps=9999
New Line.778515300 Phases=1 Bus1=node_1051244792.2 Bus2=node_1051244793.2 Switch=Y r1=1e-4 x1=1e-4 r0=1e-4 x0=1e-4 normamps=9999
New Line.1061013178 Phases=3 Bus1=node_1327803817.1.2.3 Bus2=node_1683144973.1.2.3 Switch=Y r1=1e-4 x1=1e-4 r0=1e-4 x0=1e-4 normamps=9999
New Line.930831851 Phases=1 Bus1=node_1189966164.2 Bus2=node_1189966165.2 Switch=Y r1=1e-4 x1=1e-4 r0=1e-4 x0=1e-4 normamps=9999
New Line.1015565477 Phases=1 Bus1=100_1015565495.3 Bus2=100_1015565496.3 Switch=Y r1=1e-4 x1=1e-4 r0=1e-4 x0=1e-4 normamps=9999
New Line.340531169 Phases=3 Bus1=node_534496013.1.2.3 Bus2=node_534496014.1.2.3 Switch=Y r1=1e-4 x1=1e-4 r0=1e-4 x0=1e-4 normamps=9999
New Line.930831861 Phases=1 Bus1=node_1189966184.2 Bus2=node_1189966185.2 Switch=Y r1=1e-4 x1=1e-4 r0=1e-4 x0=1e-4 normamps=9999
New Line.1098113218 Phases=1 Bus1=100_1098113237.2 Bus2=100_1098113236.2 Switch=Y r1=1e-4 x1=1e-4 r0=1e-4 x0=1e-4 normamps=9999
New Line.873554230 Phases=3 Bus1=node_1140297778.1.2.3 Bus2=node_1140297779.1.2.3 Switch=Y r1=1e-4 x1=1e-4 r0=1e-4 x0=1e-4 normamps=9999
New Line.1096442845 Phases=3 Bus1=node_2710785665.1.2.3 Bus2=node_2710785727.1.2.3 Switch=Y r1=1e-4 x1=1e-4 r0=1e-4 x0=1e-4 normamps=9999
New Line.1073002050 Phases=1 Bus1=node_444096081.3 Bus2=node_1340149031.3 Switch=Y r1=1e-4 x1=1e-4 r0=1e-4 x0=1e-4 normamps=9999
New Line.349259680 Phases=1 Bus1=100_349259694.2 Bus2=100_349259693.2 Switch=Y r1=1e-4 x1=1e-4 r0=1e-4 x0=1e-4 normamps=9999
New Line.1592193835 Phases=1 Bus1=node_1912702423.2 Bus2=node_1912702486.2 Switch=Y r1=1e-4 x1=1e-4 r0=1e-4 x0=1e-4 normamps=9999
New Line.349258482 Phases=1 Bus1=100_349258496.2 Bus2=100_349258495.2 Switch=Y r1=1e-4 x1=1e-4 r0=1e-4 x0=1e-4 normamps=9999
New Line.627443760 Phases=3 Bus1=node_444412405.1.2.3 Bus2=node_1709459361.1.2.3 Switch=Y r1=1e-4 x1=1e-4 r0=1e-4 x0=1e-4 normamps=9999
New Line.957184261 Phases=1 Bus1=node_1219423204.2 Bus2=node_1219423331.2 Switch=Y r1=1e-4 x1=1e-4 r0=1e-4 x0=1e-4 normamps=9999
New Line.1816605183 Phases=3 Bus1=node_2141731274.1.2.3 Bus2=node_2141732980.1.2.3 Switch=Y r1=1e-4 x1=1e-4 r0=1e-4 x0=1e-4 normamps=9999
New Line.1712451670 Phases=1 Bus1=node_2038538185.2 Bus2=node_2038538273.2 Switch=Y r1=1e-4 x1=1e-4 r0=1e-4 x0=1e-4 normamps=9999
New Line.1386223448 Phases=1 Bus1=100_1386223474.3 Bus2=100_1386223475.3 Switch=Y r1=1e-4 x1=1e-4 r0=1e-4 x0=1e-4 normamps=9999
New Line.2164451109 Phases=3 Bus1=node_2473082743.1.2.3 Bus2=node_2473082706.1.2.3 Switch=Y r1=1e-4 x1=1e-4 r0=1e-4 x0=1e-4 normamps=9999
New Line.2164451179 Phases=3 Bus1=node_2473082536.1.2.3 Bus2=node_2473082866.1.2.3 Switch=Y r1=1e-4 x1=1e-4 r0=1e-4 x0=1e-4 normamps=9999
New Line.2043755155 Phases=1 Bus1=100_2043755170.2 Bus2=100_2043755171.2 Switch=Y r1=1e-4 x1=1e-4 r0=1e-4 x0=1e-4 normamps=9999
New Line.2056538373 Phases=1 Bus1=node_2371177035.2 Bus2=node_2371177083.2 Switch=Y r1=1e-4 x1=1e-4 r0=1e-4 x0=1e-4 normamps=9999
New Line.2220397464 Phases=1 Bus1=node_2526005627.2 Bus2=node_2526005867.2 Switch=Y r1=1e-4 x1=1e-4 r0=1e-4 x0=1e-4 normamps=9999
New Line.2164451172 Phases=3 Bus1=node_2473082857.1.2.3 Bus2=node_2473082541.1.2.3 Switch=Y r1=1e-4 x1=1e-4 r0=1e-4 x0=1e-4 normamps=9999
New Line.2047812994 Phases=1 Bus1=node_2362949713.1 Bus2=node_2362949832.1 Switch=Y r1=1e-4 x1=1e-4 r0=1e-4 x0=1e-4 normamps=9999
New Line.2164451091 Phases=3 Bus1=node_2473082684.1.2.3 Bus2=node_2473082718.1.2.3 Switch=Y r1=1e-4 x1=1e-4 r0=1e-4 x0=1e-4 normamps=9999
New Line.2051265289 Phases=1 Bus1=100_2051265305.2 Bus2=100_2051265304.2 Switch=Y r1=1e-4 x1=1e-4 r0=1e-4 x0=1e-4 normamps=9999
New Line.349334605 Phases=3 Bus1=100_349334577.1.2.3 Bus2=segm_349334578.1.2.3 Switch=Y r1=1e-4 x1=1e-4 r0=1e-4 x0=1e-4 normamps=9999
New Line.1408286037 Phases=3 Bus1=node_1078872637.1.2.3 Bus2=node_1705010044.1.2.3 Switch=Y r1=1e-4 x1=1e-4 r0=1e-4 x0=1e-4 normamps=9999
New Line.349334629 Phases=3 Bus1=100_349334577.1.2.3 Bus2=100_349334638.1.2.3 Switch=Y r1=1e-4 x1=1e-4 r0=1e-4 x0=1e-4 normamps=9999
New Line.1408286170 Phases=3 Bus1=100_1408286182.1.2.3 Bus2=100_1408286183.1.2.3 Switch=Y r1=1e-4 x1=1e-4 r0=1e-4 x0=1e-4 normamps=9999
New Line.349334620 Phases=3 Bus1=100_349334638.1.2.3 Bus2=segm_349334639.1.2.3 Switch=Y r1=1e-4 x1=1e-4 r0=1e-4 x0=1e-4 normamps=9999
New Line.1338968223 Phases=1 Bus1=node_1633648508.1 Bus2=node_1633648566.1 Switch=Y r1=1e-4 x1=1e-4 r0=1e-4 x0=1e-4 normamps=9999
New Line.1408286097 Phases=3 Bus1=node_1705010153.1.2.3 Bus2=node_1705010154.1.2.3 Switch=Y r1=1e-4 x1=1e-4 r0=1e-4 x0=1e-4 normamps=9999
New Line.1408286177 Phases=3 Bus1=100_1408286182.1.2.3 Bus2=100_1408286183.1.2.3 Switch=Y r1=1e-4 x1=1e-4 r0=1e-4 x0=1e-4 normamps=9999
New Line.2568109658 Phases=1 Bus1=node_2717877223.3 Bus2=node_2717877284.3 Switch=Y r1=1e-4 x1=1e-4 r0=1e-4 x0=1e-4 normamps=9999
New Line.2681092189 Phases=1 Bus1=node_2855420032.1 Bus2=node_2855420206.1 Switch=Y r1=1e-4 x1=1e-4 r0=1e-4 x0=1e-4 normamps=9999
New Line.1351274534 Phases=3 Bus1=node_895372731.1.2.3 Bus2=node_2234056814.1.2.3 Switch=Y r1=1e-4 x1=1e-4 r0=1e-4 x0=1e-4 normamps=9999
New Line.345703381 Phases=3 Bus1=node_539941603.1.2.3 Bus2=node_539941604.1.2.3 Switch=Y r1=1e-4 x1=1e-4 r0=1e-4 x0=1e-4 normamps=9999
New Line.345795843 Phases=1 Bus1=node_540179982.1 Bus2=node_540179983.1 Switch=Y r1=1e-4 x1=1e-4 r0=1e-4 x0=1e-4 normamps=9999
New Line.345738712 Phases=3 Bus1=node_540037244.1.2.3 Bus2=node_540037245.1.2.3 Switch=Y r1=1e-4 x1=1e-4 r0=1e-4 x0=1e-4 normamps=9999
New Line.345773913 Phases=3 Bus1=node_540132773.1.2.3 Bus2=node_540132774.1.2.3 Switch=Y r1=1e-4 x1=1e-4 r0=1e-4 x0=1e-4 normamps=9999
New Line.343703227 Phases=1 Bus1=node_539324386.1 Bus2=node_539324387.1 Switch=Y r1=1e-4 x1=1e-4 r0=1e-4 x0=1e-4 normamps=9999
New Line.337406005 Phases=3 Bus1=node_532432185.1.2.3 Bus2=node_532432186.1.2.3 Switch=Y r1=1e-4 x1=1e-4 r0=1e-4 x0=1e-4 normamps=9999
New Line.340527569 Phases=3 Bus1=node_534263367.1.2.3 Bus2=node_534263368.1.2.3 Switch=Y r1=1e-4 x1=1e-4 r0=1e-4 x0=1e-4 normamps=9999
New Line.345388661 Phases=1 Bus1=node_1015233199.3 Bus2=node_1015233200.3 Switch=Y r1=1e-4 x1=1e-4 r0=1e-4 x0=1e-4 normamps=9999
New Line.1816604390 Phases=3 Bus1=node_2141731823.1.2.3 Bus2=node_2141731857.1.2.3 Switch=Y r1=1e-4 x1=1e-4 r0=1e-4 x0=1e-4 normamps=9999
New Line.2232833013 Phases=3 Bus1=node_427107726.1.2.3 Bus2=node_2538428646.1.2.3 Switch=Y r1=1e-4 x1=1e-4 r0=1e-4 x0=1e-4 normamps=9999
New Line.340529434 Phases=1 Bus1=100_2051265305.2 Bus2=100_2051265304.2 Switch=Y r1=1e-4 x1=1e-4 r0=1e-4 x0=1e-4 normamps=9999
New Line.338970830 Phases=3 Bus1=node_533368780.1.2.3 Bus2=node_533368781.1.2.3 Switch=Y r1=1e-4 x1=1e-4 r0=1e-4 x0=1e-4 normamps=9999
New Line.337406014 Phases=1 Bus1=node_532432200.3 Bus2=node_532432201.3 Switch=Y r1=1e-4 x1=1e-4 r0=1e-4 x0=1e-4 normamps=9999
New Line.345796384 Phases=3 Bus1=node_540181395.1.2.3 Bus2=node_540181396.1.2.3 Switch=Y r1=1e-4 x1=1e-4 r0=1e-4 x0=1e-4 normamps=9999
New Line.1816604681 Phases=3 Bus1=node_2141731912.1.2.3 Bus2=node_2141732338.1.2.3 Switch=Y r1=1e-4 x1=1e-4 r0=1e-4 x0=1e-4 normamps=9999
New Line.345719736 Phases=1 Bus1=node_539976683.3 Bus2=node_539976684.3 Switch=Y r1=1e-4 x1=1e-4 r0=1e-4 x0=1e-4 normamps=9999
New Line.337406146 Phases=1 Bus1=node_532432484.2 Bus2=node_532432485.2 Switch=Y r1=1e-4 x1=1e-4 r0=1e-4 x0=1e-4 normamps=9999
New Line.345522757 Phases=1 Bus1=node_539477712.3 Bus2=node_539477713.3 Switch=Y r1=1e-4 x1=1e-4 r0=1e-4 x0=1e-4 normamps=9999
New Line.345524004 Phases=1 Bus1=node_539494251.1 Bus2=node_539494252.1 Switch=Y r1=1e-4 x1=1e-4 r0=1e-4 x0=1e-4 normamps=9999
New Line.345523846 Phases=3 Bus1=node_539480919.1.2.3 Bus2=node_539480920.1.2.3 Switch=Y r1=1e-4 x1=1e-4 r0=1e-4 x0=1e-4 normamps=9999
New Line.349334694 Phases=3 Bus1=100_349334712.1.2.3 Bus2=segm_349334713.1.2.3 Switch=Y r1=1e-4 x1=1e-4 r0=1e-4 x0=1e-4 normamps=9999
New Line.345785877 Phases=3 Bus1=node_540154969.1.2.3 Bus2=node_540154970.1.2.3 Switch=Y r1=1e-4 x1=1e-4 r0=1e-4 x0=1e-4 normamps=9999
New Line.338970752 Phases=1 Bus1=node_533368576.3 Bus2=node_533368577.3 Switch=Y r1=1e-4 x1=1e-4 r0=1e-4 x0=1e-4 normamps=9999
New Line.345750471 Phases=1 Bus1=node_540071847.2 Bus2=node_540071848.2 Switch=Y r1=1e-4 x1=1e-4 r0=1e-4 x0=1e-4 normamps=9999
New Line.345546294 Phases=3 Bus1=node_539556069.1.2.3 Bus2=node_539556070.1.2.3 Switch=Y r1=1e-4 x1=1e-4 r0=1e-4 x0=1e-4 normamps=9999
New Line.345610882 Phases=3 Bus1=node_539743523.1.2.3 Bus2=node_539743524.1.2.3 Switch=Y r1=1e-4 x1=1e-4 r0=1e-4 x0=1e-4 normamps=9999
New Line.2145668951 Phases=3 Bus1=node_427109834.1.2.3 Bus2=node_2455854717.1.2.3 Switch=Y r1=1e-4 x1=1e-4 r0=1e-4 x0=1e-4 normamps=9999
New Line.345542702 Phases=3 Bus1=node_539511583.1.2.3 Bus2=node_539511584.1.2.3 Switch=Y r1=1e-4 x1=1e-4 r0=1e-4 x0=1e-4 normamps=9999
New Line.338970153 Phases=3 Bus1=node_533367183.1.2.3 Bus2=node_533367184.1.2.3 Switch=Y r1=1e-4 x1=1e-4 r0=1e-4 x0=1e-4 normamps=9999
New Line.340213455 Phases=3 Bus1=node_534261765.1.2.3 Bus2=node_534261766.1.2.3 Switch=Y r1=1e-4 x1=1e-4 r0=1e-4 x0=1e-4 normamps=9999
New Line.340528883 Phases=1 Bus1=node_534348290.2 Bus2=node_534348291.2 Switch=Y r1=1e-4 x1=1e-4 r0=1e-4 x0=1e-4 normamps=9999
New Line.345610814 Phases=1 Bus1=node_539743337.2 Bus2=node_539743338.2 Switch=Y r1=1e-4 x1=1e-4 r0=1e-4 x0=1e-4 normamps=9999
New Line.345545630 Phases=1 Bus1=node_539554393.2 Bus2=node_539554394.2 Switch=Y r1=1e-4 x1=1e-4 r0=1e-4 x0=1e-4 normamps=9999
New Line.345785945 Phases=3 Bus1=node_540159455.1.2.3 Bus2=node_540159456.1.2.3 Switch=Y r1=1e-4 x1=1e-4 r0=1e-4 x0=1e-4 normamps=9999
New Line.345522775 Phases=1 Bus1=node_539477766.2 Bus2=node_539477767.2 Switch=Y r1=1e-4 x1=1e-4 r0=1e-4 x0=1e-4 normamps=9999
New Line.1816604397 Phases=3 Bus1=node_2141731410.1.2.3 Bus2=node_2141731867.1.2.3 Switch=Y r1=1e-4 x1=1e-4 r0=1e-4 x0=1e-4 normamps=9999
New Line.340971848 Phases=1 Bus1=node_534587688.1 Bus2=node_534587689.1 Switch=Y r1=1e-4 x1=1e-4 r0=1e-4 x0=1e-4 normamps=9999
New Line.340971834 Phases=1 Bus1=node_534587646.2 Bus2=node_534587647.2 Switch=Y r1=1e-4 x1=1e-4 r0=1e-4 x0=1e-4 normamps=9999
New Line.2198064300 Phases=3 Bus1=node_2503728434.1.2.3 Bus2=node_2503728447.1.2.3 Switch=Y r1=1e-4 x1=1e-4 r0=1e-4 x0=1e-4 normamps=9999
New Line.338970626 Phases=3 Bus1=node_533368300.1.2.3 Bus2=node_533368301.1.2.3 Switch=Y r1=1e-4 x1=1e-4 r0=1e-4 x0=1e-4 normamps=9999
New Line.345719730 Phases=1 Bus1=node_539976665.2 Bus2=node_539976666.2 Switch=Y r1=1e-4 x1=1e-4 r0=1e-4 x0=1e-4 normamps=9999
New Line.345786925 Phases=1 Bus1=node_540162279.1 Bus2=node_540162280.1 Switch=Y r1=1e-4 x1=1e-4 r0=1e-4 x0=1e-4 normamps=9999
New Line.349334762 Phases=1 Bus1=100_349334751.2 Bus2=segm_486815407.2 Switch=Y r1=1e-4 x1=1e-4 r0=1e-4 x0=1e-4 normamps=9999
New Line.345703912 Phases=3 Bus1=node_539942974.1.2.3 Bus2=node_539942975.1.2.3 Switch=Y r1=1e-4 x1=1e-4 r0=1e-4 x0=1e-4 normamps=9999
New Line.345607612 Phases=3 Bus1=node_539678507.1.2.3 Bus2=node_539699978.1.2.3 Switch=Y r1=1e-4 x1=1e-4 r0=1e-4 x0=1e-4 normamps=9999
New Line.345794248 Phases=3 Bus1=node_540175585.1.2.3 Bus2=node_540175586.1.2.3 Switch=Y r1=1e-4 x1=1e-4 r0=1e-4 x0=1e-4 normamps=9999
New Line.349334555 Phases=3 Bus1=100_349334564.1.2.3 Bus2=100_349334503.1.2.3 Switch=Y r1=1e-4 x1=1e-4 r0=1e-4 x0=1e-4 normamps=9999
New Line.345750478 Phases=1 Bus1=node_540071868.2 Bus2=node_540071869.2 Switch=Y r1=1e-4 x1=1e-4 r0=1e-4 x0=1e-4 normamps=9999
New Line.337405641 Phases=3 Bus1=node_532431318.1.2.3 Bus2=node_532431319.1.2.3 Switch=Y r1=1e-4 x1=1e-4 r0=1e-4 x0=1e-4 normamps=9999
New Line.345388643 Phases=1 Bus1=node_539351783.1 Bus2=node_539351784.1 Switch=Y r1=1e-4 x1=1e-4 r0=1e-4 x0=1e-4 normamps=9999
New Line.345610850 Phases=1 Bus1=node_539743427.3 Bus2=node_539743428.3 Switch=Y r1=1e-4 x1=1e-4 r0=1e-4 x0=1e-4 normamps=9999
New Line.345388674 Phases=1 Bus1=node_539351876.3 Bus2=node_539351877.3 Switch=Y r1=1e-4 x1=1e-4 r0=1e-4 x0=1e-4 normamps=9999
New Line.340529876 Phases=1 Bus1=node_534423873.2 Bus2=node_534423874.2 Switch=Y r1=1e-4 x1=1e-4 r0=1e-4 x0=1e-4 normamps=9999
New Line.339769943 Phases=3 Bus1=node_533905430.1.2.3 Bus2=node_533905431.1.2.3 Switch=Y r1=1e-4 x1=1e-4 r0=1e-4 x0=1e-4 normamps=9999
New Line.345772312 Phases=1 Bus1=node_540119848.2 Bus2=node_540119849.2 Switch=Y r1=1e-4 x1=1e-4 r0=1e-4 x0=1e-4 normamps=9999
New Line.345610869 Phases=1 Bus1=node_539743484.1 Bus2=node_539743485.1 Switch=Y r1=1e-4 x1=1e-4 r0=1e-4 x0=1e-4 normamps=9999
New Line.345610832 Phases=3 Bus1=node_539743391.1.2.3 Bus2=node_539743392.1.2.3 Switch=Y r1=1e-4 x1=1e-4 r0=1e-4 x0=1e-4 normamps=9999
New Line.345783530 Phases=1 Bus1=node_540144214.2 Bus2=node_540144215.2 Switch=Y r1=1e-4 x1=1e-4 r0=1e-4 x0=1e-4 normamps=9999
New Line.345703925 Phases=3 Bus1=node_539942995.1.2.3 Bus2=node_539942996.1.2.3 Switch=Y r1=1e-4 x1=1e-4 r0=1e-4 x0=1e-4 normamps=9999
New Line.1816604818 Phases=3 Bus1=node_2141732392.1.2.3 Bus2=node_2141732568.1.2.3 Switch=Y r1=1e-4 x1=1e-4 r0=1e-4 x0=1e-4 normamps=9999
New Line.342006357 Phases=3 Bus1=node_535593697.1.2.3 Bus2=node_535593698.1.2.3 Switch=Y r1=1e-4 x1=1e-4 r0=1e-4 x0=1e-4 normamps=9999
New Line.345719717 Phases=1 Bus1=node_539976626.2 Bus2=node_539976627.2 Switch=Y r1=1e-4 x1=1e-4 r0=1e-4 x0=1e-4 normamps=9999
New Line.345738688 Phases=3 Bus1=node_540037208.1.2.3 Bus2=node_540037209.1.2.3 Switch=Y r1=1e-4 x1=1e-4 r0=1e-4 x0=1e-4 normamps=9999
New Line.345795813 Phases=3 Bus1=node_540179928.1.2.3 Bus2=node_540179929.1.2.3 Switch=Y r1=1e-4 x1=1e-4 r0=1e-4 x0=1e-4 normamps=9999
New Line.345545842 Phases=3 Bus1=node_539554873.1.2.3 Bus2=node_539554874.1.2.3 Switch=Y r1=1e-4 x1=1e-4 r0=1e-4 x0=1e-4 normamps=9999
New Line.345466979 Phases=3 Bus1=node_539427326.1.2.3 Bus2=node_539427327.1.2.3 Switch=Y r1=1e-4 x1=1e-4 r0=1e-4 x0=1e-4 normamps=9999
New Line.345523110 Phases=1 Bus1=node_539478741.2 Bus2=node_539478742.2 Switch=Y r1=1e-4 x1=1e-4 r0=1e-4 x0=1e-4 normamps=9999
New Line.338970607 Phases=1 Bus1=node_533368243.1 Bus2=node_533368244.1 Switch=Y r1=1e-4 x1=1e-4 r0=1e-4 x0=1e-4 normamps=9999
New Line.342006266 Phases=1 Bus1=node_2817951344.3 Bus2=node_2519062417.3 Switch=Y r1=1e-4 x1=1e-4 r0=1e-4 x0=1e-4 normamps=9999
New Line.345703182 Phases=1 Bus1=node_539941166.2 Bus2=node_539941167.2 Switch=Y r1=1e-4 x1=1e-4 r0=1e-4 x0=1e-4 normamps=9999
New Line.1625613932 Phases=3 Bus1=node_1945877629.1.2.3 Bus2=node_1945877630.1.2.3 Switch=Y r1=1e-4 x1=1e-4 r0=1e-4 x0=1e-4 normamps=9999
New Line.345610907 Phases=1 Bus1=node_539743586.3 Bus2=node_539743587.3 Switch=Y r1=1e-4 x1=1e-4 r0=1e-4 x0=1e-4 normamps=9999
New Line.345610820 Phases=1 Bus1=node_539743355.2 Bus2=node_539743356.2 Switch=Y r1=1e-4 x1=1e-4 r0=1e-4 x0=1e-4 normamps=9999
New Line.345739614 Phases=1 Bus1=node_540052646.2 Bus2=node_540052647.2 Switch=Y r1=1e-4 x1=1e-4 r0=1e-4 x0=1e-4 normamps=9999
New Line.349334679 Phases=3 Bus1=segm_349334652.1.2.3 Bus2=100_349334651.1.2.3 Switch=Y r1=1e-4 x1=1e-4 r0=1e-4 x0=1e-4 normamps=9999
New Line.345610856 Phases=1 Bus1=node_539743445.3 Bus2=node_539743446.3 Switch=Y r1=1e-4 x1=1e-4 r0=1e-4 x0=1e-4 normamps=9999
New Line.337408967 Phases=1 Bus1=node_532722992.2 Bus2=node_532722993.2 Switch=Y r1=1e-4 x1=1e-4 r0=1e-4 x0=1e-4 normamps=9999
New Line.343703243 Phases=1 Bus1=node_539324422.3 Bus2=node_539324423.3 Switch=Y r1=1e-4 x1=1e-4 r0=1e-4 x0=1e-4 normamps=9999
New Line.2699105537 Phases=3 Bus1=node_2817951316.1.2.3 Bus2=node_2879535348.1.2.3 Switch=Y r1=1e-4 x1=1e-4 r0=1e-4 x0=1e-4 normamps=9999
New Line.337406020 Phases=1 Bus1=node_532432218.1 Bus2=node_532432219.1 Switch=Y r1=1e-4 x1=1e-4 r0=1e-4 x0=1e-4 normamps=9999
New Line.345522750 Phases=1 Bus1=node_539477691.1 Bus2=node_539477692.1 Switch=Y r1=1e-4 x1=1e-4 r0=1e-4 x0=1e-4 normamps=9999
New Line.349258078 Phases=3 Bus1=100_1408286024.1.2.3 Bus2=100_1408286023.1.2.3 Switch=Y r1=1e-4 x1=1e-4 r0=1e-4 x0=1e-4 normamps=9999
New Line.338970381 Phases=3 Bus1=node_533367733.1.2.3 Bus2=node_533367734.1.2.3 Switch=Y r1=1e-4 x1=1e-4 r0=1e-4 x0=1e-4 normamps=9999
New Line.345738700 Phases=3 Bus1=node_540037226.1.2.3 Bus2=node_540037227.1.2.3 Switch=Y r1=1e-4 x1=1e-4 r0=1e-4 x0=1e-4 normamps=9999
New Line.345750813 Phases=1 Bus1=node_540072819.2 Bus2=node_540072820.2 Switch=Y r1=1e-4 x1=1e-4 r0=1e-4 x0=1e-4 normamps=9999
New Line.345566980 Phases=1 Bus1=node_539600226.2 Bus2=node_539600227.2 Switch=Y r1=1e-4 x1=1e-4 r0=1e-4 x0=1e-4 normamps=9999
New Line.349258122 Phases=3 Bus1=100_349258121.1.2.3 Bus2=100_349258100.1.2.3 Switch=Y r1=1e-4 x1=1e-4 r0=1e-4 x0=1e-4 normamps=9999
New Line.339768029 Phases=3 Bus1=node_1139814572.1.2.3 Bus2=node_1139814573.1.2.3 Switch=Y r1=1e-4 x1=1e-4 r0=1e-4 x0=1e-4 normamps=9999
New Line.345567045 Phases=1 Bus1=node_539600409.1 Bus2=node_539600410.1 Switch=Y r1=1e-4 x1=1e-4 r0=1e-4 x0=1e-4 normamps=9999
New Line.1816604674 Phases=3 Bus1=node_2141732219.1.2.3 Bus2=node_2141732328.1.2.3 Switch=Y r1=1e-4 x1=1e-4 r0=1e-4 x0=1e-4 normamps=9999
New Line.345607461 Phases=1 Bus1=node_539678060.2 Bus2=node_539678061.2 Switch=Y r1=1e-4 x1=1e-4 r0=1e-4 x0=1e-4 normamps=9999
New Line.349334746 Phases=1 Bus1=100_349334757.2 Bus2=segm_486815411.2 Switch=Y r1=1e-4 x1=1e-4 r0=1e-4 x0=1e-4 normamps=9999
New Line.345566986 Phases=1 Bus1=node_539600244.2 Bus2=node_539600245.2 Switch=Y r1=1e-4 x1=1e-4 r0=1e-4 x0=1e-4 normamps=9999
New Line.342004319 Phases=3 Bus1=node_535459855.1.2.3 Bus2=node_535459856.1.2.3 Switch=Y r1=1e-4 x1=1e-4 r0=1e-4 x0=1e-4 normamps=9999
New Line.349334703 Phases=3 Bus1=100_349334712.1.2.3 Bus2=100_349334651.1.2.3 Switch=Y r1=1e-4 x1=1e-4 r0=1e-4 x0=1e-4 normamps=9999
New Line.349334546 Phases=3 Bus1=100_349334564.1.2.3 Bus2=segm_349334565.1.2.3 Switch=Y r1=1e-4 x1=1e-4 r0=1e-4 x0=1e-4 normamps=9999
New Line.345680450 Phases=1 Bus1=node_539869249.2 Bus2=node_539869250.2 Switch=Y r1=1e-4 x1=1e-4 r0=1e-4 x0=1e-4 normamps=9999
New Line.2607580114 Phases=3 Bus1=node_2760946056.1.2.3 Bus2=node_2760946113.1.2.3 Switch=Y r1=1e-4 x1=1e-4 r0=1e-4 x0=1e-4 normamps=9999
New Line.338404293 Phases=1 Bus1=node_533196465.2 Bus2=node_533196466.2 Switch=Y r1=1e-4 x1=1e-4 r0=1e-4 x0=1e-4 normamps=9999
New Line.345795825 Phases=3 Bus1=node_540179946.1.2.3 Bus2=node_540179947.1.2.3 Switch=Y r1=1e-4 x1=1e-4 r0=1e-4 x0=1e-4 normamps=9999
New Line.345738725 Phases=3 Bus1=node_540037265.1.2.3 Bus2=node_540037266.1.2.3 Switch=Y r1=1e-4 x1=1e-4 r0=1e-4 x0=1e-4 normamps=9999
New Line.1708226226 Phases=1 Bus1=node_895374630.1 Bus2=node_2097078030.1 Switch=Y r1=1e-4 x1=1e-4 r0=1e-4 x0=1e-4 normamps=9999
New Line.345568075 Phases=1 Bus1=node_539620570.1 Bus2=node_539620571.1 Switch=Y r1=1e-4 x1=1e-4 r0=1e-4 x0=1e-4 normamps=9999
New Line.345720056 Phases=1 Bus1=node_539977589.2 Bus2=node_539977590.2 Switch=Y r1=1e-4 x1=1e-4 r0=1e-4 x0=1e-4 normamps=9999
New Line.345656948 Phases=1 Bus1=node_539846377.2 Bus2=node_539846378.2 Switch=Y r1=1e-4 x1=1e-4 r0=1e-4 x0=1e-4 normamps=9999
New Line.345656942 Phases=1 Bus1=node_539846359.1 Bus2=node_539846360.1 Switch=Y r1=1e-4 x1=1e-4 r0=1e-4 x0=1e-4 normamps=9999
New Line.345388865 Phases=1 Bus1=node_539373895.3 Bus2=node_539373896.3 Switch=Y r1=1e-4 x1=1e-4 r0=1e-4 x0=1e-4 normamps=9999
New Line.345785894 Phases=1 Bus1=node_540155008.2 Bus2=node_540155009.2 Switch=Y r1=1e-4 x1=1e-4 r0=1e-4 x0=1e-4 normamps=9999
New Line.349259695 Phases=1 Bus1=100_349259694.2 Bus2=100_349259693.2 Switch=Y r1=1e-4 x1=1e-4 r0=1e-4 x0=1e-4 normamps=9999
New Line.338970613 Phases=1 Bus1=node_533368261.2 Bus2=node_533368262.2 Switch=Y r1=1e-4 x1=1e-4 r0=1e-4 x0=1e-4 normamps=9999
New Line.345607068 Phases=3 Bus1=node_539677073.1.2.3 Bus2=node_539677074.1.2.3 Switch=Y r1=1e-4 x1=1e-4 r0=1e-4 x0=1e-4 normamps=9999
New Line.345750517 Phases=1 Bus1=node_540071985.3 Bus2=node_540071986.3 Switch=Y r1=1e-4 x1=1e-4 r0=1e-4 x0=1e-4 normamps=9999
New Line.1386223467 Phases=1 Bus1=100_1386223474.3 Bus2=100_1386223475.3 Switch=Y r1=1e-4 x1=1e-4 r0=1e-4 x0=1e-4 normamps=9999
New Line.2652361599 Phases=3 Bus1=node_2879535269.1.2.3 Bus2=node_2879535283.1.2.3 Switch=Y r1=1e-4 x1=1e-4 r0=1e-4 x0=1e-4 normamps=9999
New Line.345654231 Phases=1 Bus1=node_539808958.2 Bus2=node_539808959.2 Switch=Y r1=1e-4 x1=1e-4 r0=1e-4 x0=1e-4 normamps=9999
New Line.345773202 Phases=1 Bus1=node_540130860.2 Bus2=node_540130861.2 Switch=Y r1=1e-4 x1=1e-4 r0=1e-4 x0=1e-4 normamps=9999
New Line.349259586 Phases=3 Bus1=100_349259564.1.2.3 Bus2=100_349259585.1.2.3 Switch=Y r1=1e-4 x1=1e-4 r0=1e-4 x0=1e-4 normamps=9999
New Line.345750433 Phases=1 Bus1=node_540071733.2 Bus2=node_540071734.2 Switch=Y r1=1e-4 x1=1e-4 r0=1e-4 x0=1e-4 normamps=9999
New Line.343703250 Phases=1 Bus1=node_539324443.1 Bus2=node_539324444.1 Switch=Y r1=1e-4 x1=1e-4 r0=1e-4 x0=1e-4 normamps=9999
New Line.345794124 Phases=1 Bus1=node_540175213.2 Bus2=node_540175214.2 Switch=Y r1=1e-4 x1=1e-4 r0=1e-4 x0=1e-4 normamps=9999
New Line.345522743 Phases=1 Bus1=node_539477670.2 Bus2=node_539477671.2 Switch=Y r1=1e-4 x1=1e-4 r0=1e-4 x0=1e-4 normamps=9999
New Line.341217060 Phases=1 Bus1=node_534891681.2 Bus2=node_534891680.2 Switch=Y r1=1e-4 x1=1e-4 r0=1e-4 x0=1e-4 normamps=9999
New Line.2451852710 Phases=1 Bus1=node_2615875275.2 Bus2=node_2615875276.2 Switch=Y r1=1e-4 x1=1e-4 r0=1e-4 x0=1e-4 normamps=9999
New Line.341845186 Phases=3 Bus1=node_535459249.1.2.3 Bus2=node_535459250.1.2.3 Switch=Y r1=1e-4 x1=1e-4 r0=1e-4 x0=1e-4 normamps=9999
New Line.835208899 Phases=3 Bus1=node_1104468607.1.2.3 Bus2=node_1104468608.1.2.3 Switch=Y r1=1e-4 x1=1e-4 r0=1e-4 x0=1e-4 normamps=9999
New Line.345719711 Phases=1 Bus1=node_539976608.1 Bus2=node_539976609.1 Switch=Y r1=1e-4 x1=1e-4 r0=1e-4 x0=1e-4 normamps=9999
New Line.345773925 Phases=3 Bus1=node_540132791.1.2.3 Bus2=node_540132792.1.2.3 Switch=Y r1=1e-4 x1=1e-4 r0=1e-4 x0=1e-4 normamps=9999
New Line.345589685 Phases=1 Bus1=node_539676560.2 Bus2=node_539676561.2 Switch=Y r1=1e-4 x1=1e-4 r0=1e-4 x0=1e-4 normamps=9999
New Line.345750861 Phases=1 Bus1=node_540072933.1 Bus2=node_540072934.1 Switch=Y r1=1e-4 x1=1e-4 r0=1e-4 x0=1e-4 normamps=9999
New Line.1816604688 Phases=3 Bus1=node_2141731919.1.2.3 Bus2=node_2141732350.1.2.3 Switch=Y r1=1e-4 x1=1e-4 r0=1e-4 x0=1e-4 normamps=9999
New Line.345750800 Phases=1 Bus1=node_540072780.3 Bus2=node_540072781.3 Switch=Y r1=1e-4 x1=1e-4 r0=1e-4 x0=1e-4 normamps=9999
New Line.345786908 Phases=1 Bus1=node_540162228.3 Bus2=node_540162229.3 Switch=Y r1=1e-4 x1=1e-4 r0=1e-4 x0=1e-4 normamps=9999
New Line.345567016 Phases=1 Bus1=node_444096046.2 Bus2=node_2760945427.2 Switch=Y r1=1e-4 x1=1e-4 r0=1e-4 x0=1e-4 normamps=9999
New Line.345750529 Phases=1 Bus1=node_540072021.3 Bus2=node_540072022.3 Switch=Y r1=1e-4 x1=1e-4 r0=1e-4 x0=1e-4 normamps=9999
New Line.345567071 Phases=3 Bus1=node_539600487.1.2.3 Bus2=node_539600488.1.2.3 Switch=Y r1=1e-4 x1=1e-4 r0=1e-4 x0=1e-4 normamps=9999
New Line.345389654 Phases=1 Bus1=node_539376243.2 Bus2=node_539376244.2 Switch=Y r1=1e-4 x1=1e-4 r0=1e-4 x0=1e-4 normamps=9999
New Line.349259542 Phases=3 Bus1=100_349259541.1.2.3 Bus2=100_349259520.1.2.3 Switch=Y r1=1e-4 x1=1e-4 r0=1e-4 x0=1e-4 normamps=9999
New Line.345719742 Phases=1 Bus1=node_539976701.3 Bus2=node_539976702.3 Switch=Y r1=1e-4 x1=1e-4 r0=1e-4 x0=1e-4 normamps=9999
New Line.345796371 Phases=3 Bus1=node_540181374.1.2.3 Bus2=node_540181375.1.2.3 Switch=Y r1=1e-4 x1=1e-4 r0=1e-4 x0=1e-4 normamps=9999
New Line.345610826 Phases=1 Bus1=node_539743373.2 Bus2=node_539743374.2 Switch=Y r1=1e-4 x1=1e-4 r0=1e-4 x0=1e-4 normamps=9999
New Line.345750536 Phases=1 Bus1=node_540072042.3 Bus2=node_540072043.3 Switch=Y r1=1e-4 x1=1e-4 r0=1e-4 x0=1e-4 normamps=9999
New Line.345656930 Phases=1 Bus1=node_539846323.2 Bus2=node_539846324.2 Switch=Y r1=1e-4 x1=1e-4 r0=1e-4 x0=1e-4 normamps=9999
New Line.1098113229 Phases=1 Bus1=100_1098113237.2 Bus2=100_1098113236.2 Switch=Y r1=1e-4 x1=1e-4 r0=1e-4 x0=1e-4 normamps=9999
New Line.339767564 Phases=1 Bus1=node_533792279.2 Bus2=node_533792280.2 Switch=Y r1=1e-4 x1=1e-4 r0=1e-4 x0=1e-4 normamps=9999
New Line.337407102 Phases=3 Bus1=node_532550850.1.2.3 Bus2=node_532550851.1.2.3 Switch=Y r1=1e-4 x1=1e-4 r0=1e-4 x0=1e-4 normamps=9999
New Line.345655981 Phases=1 Bus1=node_539830822.2 Bus2=node_539830823.2 Switch=Y r1=1e-4 x1=1e-4 r0=1e-4 x0=1e-4 normamps=9999
New Line.349334752 Phases=1 Bus1=100_349334751.2 Bus2=100_349334757.2 Switch=Y r1=1e-4 x1=1e-4 r0=1e-4 x0=1e-4 normamps=9999
New Line.2232833043 Phases=1 Bus1=node_2538428409.2 Bus2=node_2538428725.2 Switch=Y r1=1e-4 x1=1e-4 r0=1e-4 x0=1e-4 normamps=9999
New Line.345466967 Phases=3 Bus1=node_539427308.1.2.3 Bus2=node_539427309.1.2.3 Switch=Y r1=1e-4 x1=1e-4 r0=1e-4 x0=1e-4 normamps=9999
New Line.345680521 Phases=1 Bus1=node_539869438.3 Bus2=node_539869439.3 Switch=Y r1=1e-4 x1=1e-4 r0=1e-4 x0=1e-4 normamps=9999
New Line.345564630 Phases=1 Bus1=node_539576543.2 Bus2=node_539576544.2 Switch=Y r1=1e-4 x1=1e-4 r0=1e-4 x0=1e-4 normamps=9999
New Line.339767400 Phases=1 Bus1=node_533791911.2 Bus2=node_533791912.2 Switch=Y r1=1e-4 x1=1e-4 r0=1e-4 x0=1e-4 normamps=9999
New Line.341845196 Phases=1 Bus1=node_535459267.2 Bus2=node_535459268.2 Switch=Y r1=1e-4 x1=1e-4 r0=1e-4 x0=1e-4 normamps=9999
New Line.345522732 Phases=1 Bus1=node_539477637.2 Bus2=node_539477638.2 Switch=Y r1=1e-4 x1=1e-4 r0=1e-4 x0=1e-4 normamps=9999
New Line.845089516 Phases=1 Bus1=node_1114323694.2 Bus2=node_1114323695.2 Switch=Y r1=1e-4 x1=1e-4 r0=1e-4 x0=1e-4 normamps=9999
New Line.345610807 Phases=1 Bus1=node_539743316.2 Bus2=node_539743317.2 Switch=Y r1=1e-4 x1=1e-4 r0=1e-4 x0=1e-4 normamps=9999
New Line.340213577 Phases=1 Bus1=node_534262095.2 Bus2=node_534262096.2 Switch=Y r1=1e-4 x1=1e-4 r0=1e-4 x0=1e-4 normamps=9999
New Line.345522700 Phases=1 Bus1=node_539477541.2 Bus2=node_539477542.2 Switch=Y r1=1e-4 x1=1e-4 r0=1e-4 x0=1e-4 normamps=9999
New Line.345783537 Phases=1 Bus1=node_540144235.2 Bus2=node_540144236.2 Switch=Y r1=1e-4 x1=1e-4 r0=1e-4 x0=1e-4 normamps=9999
New Line.345655877 Phases=1 Bus1=node_539830516.2 Bus2=node_539830517.2 Switch=Y r1=1e-4 x1=1e-4 r0=1e-4 x0=1e-4 normamps=9999
New Line.637049273 Phases=1 Bus1=node_904848925.2 Bus2=node_904848926.2 Switch=Y r1=1e-4 x1=1e-4 r0=1e-4 x0=1e-4 normamps=9999
New Line.349334531 Phases=3 Bus1=segm_349334504.1.2.3 Bus2=100_349334503.1.2.3 Switch=Y r1=1e-4 x1=1e-4 r0=1e-4 x0=1e-4 normamps=9999
New Line.337406158 Phases=1 Bus1=node_532432520.2 Bus2=node_532432521.2 Switch=Y r1=1e-4 x1=1e-4 r0=1e-4 x0=1e-4 normamps=9999
New Line.345654957 Phases=1 Bus1=node_539810940.2 Bus2=node_539810941.2 Switch=Y r1=1e-4 x1=1e-4 r0=1e-4 x0=1e-4 normamps=9999
New Line.345656936 Phases=1 Bus1=node_539846341.3 Bus2=node_539846342.3 Switch=Y r1=1e-4 x1=1e-4 r0=1e-4 x0=1e-4 normamps=9999
New Line.345719704 Phases=1 Bus1=node_811042468.2 Bus2=node_811042469.2 Switch=Y r1=1e-4 x1=1e-4 r0=1e-4 x0=1e-4 normamps=9999
New Line.2627859726 Phases=1 Bus1=node_427108580.2 Bus2=node_2783402027.2 Switch=Y r1=1e-4 x1=1e-4 r0=1e-4 x0=1e-4 normamps=9999
New Line.1015565488 Phases=1 Bus1=100_1015565495.3 Bus2=100_1015565496.3 Switch=Y r1=1e-4 x1=1e-4 r0=1e-4 x0=1e-4 normamps=9999
New Line.1004053141 Phases=3 Bus1=node_1266553948.1.2.3 Bus2=node_1266553949.1.2.3 Switch=Y r1=1e-4 x1=1e-4 r0=1e-4 x0=1e-4 normamps=9999
New Line.337407843 Phases=3 Bus1=node_532552713.1.2.3 Bus2=node_532552714.1.2.3 Switch=Y r1=1e-4 x1=1e-4 r0=1e-4 x0=1e-4 normamps=9999
New Line.345750427 Phases=1 Bus1=node_540071715.2 Bus2=node_540071716.2 Switch=Y r1=1e-4 x1=1e-4 r0=1e-4 x0=1e-4 normamps=9999
New Line.345567029 Phases=3 Bus1=node_539600373.1.2.3 Bus2=node_539600374.1.2.3 Switch=Y r1=1e-4 x1=1e-4 r0=1e-4 x0=1e-4 normamps=9999
New Line.340972024 Phases=1 Bus1=node_534588089.3 Bus2=node_534588090.3 Switch=Y r1=1e-4 x1=1e-4 r0=1e-4 x0=1e-4 normamps=9999
New Line.339771070 Phases=1 Bus1=node_534024250.3 Bus2=node_534024251.3 Switch=Y r1=1e-4 x1=1e-4 r0=1e-4 x0=1e-4 normamps=9999
New Line.345785907 Phases=1 Bus1=node_540155047.2 Bus2=node_540155048.2 Switch=Y r1=1e-4 x1=1e-4 r0=1e-4 x0=1e-4 normamps=9999
New Line.345566999 Phases=1 Bus1=node_539600283.1 Bus2=node_539600284.1 Switch=Y r1=1e-4 x1=1e-4 r0=1e-4 x0=1e-4 normamps=9999
New Line.345522720 Phases=1 Bus1=node_539477601.2 Bus2=node_539477602.2 Switch=Y r1=1e-4 x1=1e-4 r0=1e-4 x0=1e-4 normamps=9999
New Line.340530410 Phases=1 Bus1=node_534425294.3 Bus2=node_534425295.3 Switch=Y r1=1e-4 x1=1e-4 r0=1e-4 x0=1e-4 normamps=9999
New Line.2266265946 Phases=3 Bus1=node_2562775375.1.2.3 Bus2=node_2562775387.1.2.3 Switch=Y r1=1e-4 x1=1e-4 r0=1e-4 x0=1e-4 normamps=9999
New Line.345750491 Phases=1 Bus1=node_540071907.2 Bus2=node_540071908.2 Switch=Y r1=1e-4 x1=1e-4 r0=1e-4 x0=1e-4 normamps=9999
New Line.341572097 Phases=1 Bus1=node_534992221.1 Bus2=node_534992222.1 Switch=Y r1=1e-4 x1=1e-4 r0=1e-4 x0=1e-4 normamps=9999
New Line.345566968 Phases=1 Bus1=node_539600190.2 Bus2=node_539600191.2 Switch=Y r1=1e-4 x1=1e-4 r0=1e-4 x0=1e-4 normamps=9999
New Line.345522737 Phases=1 Bus1=node_539477652.2 Bus2=node_539477653.2 Switch=Y r1=1e-4 x1=1e-4 r0=1e-4 x0=1e-4 normamps=9999
New Line.345567023 Phases=1 Bus1=node_539600355.3 Bus2=node_539600356.3 Switch=Y r1=1e-4 x1=1e-4 r0=1e-4 x0=1e-4 normamps=9999
New Line.1429768915 Phases=1 Bus1=100_1429768927.2 Bus2=100_1429768926.2 Switch=Y r1=1e-4 x1=1e-4 r0=1e-4 x0=1e-4 normamps=9999
New Line.345750511 Phases=1 Bus1=node_540071967.3 Bus2=node_540071968.3 Switch=Y r1=1e-4 x1=1e-4 r0=1e-4 x0=1e-4 normamps=9999
New Line.339767934 Phases=1 Bus1=node_533793158.1 Bus2=node_533793159.1 Switch=Y r1=1e-4 x1=1e-4 r0=1e-4 x0=1e-4 normamps=9999
New Line.345751657 Phases=1 Bus1=node_540088167.1 Bus2=node_540088168.1 Switch=Y r1=1e-4 x1=1e-4 r0=1e-4 x0=1e-4 normamps=9999
New Line.340971998 Phases=1 Bus1=node_534588035.3 Bus2=node_534588036.3 Switch=Y r1=1e-4 x1=1e-4 r0=1e-4 x0=1e-4 normamps=9999
New Line.345786994 Phases=1 Bus1=node_540162486.2 Bus2=node_540162487.2 Switch=Y r1=1e-4 x1=1e-4 r0=1e-4 x0=1e-4 normamps=9999
New Line.345750806 Phases=1 Bus1=node_540072798.2 Bus2=node_540072799.2 Switch=Y r1=1e-4 x1=1e-4 r0=1e-4 x0=1e-4 normamps=9999
New Line.345655377 Phases=1 Bus1=node_539829136.1 Bus2=node_539829137.1 Switch=Y r1=1e-4 x1=1e-4 r0=1e-4 x0=1e-4 normamps=9999
New Line.338970736 Phases=1 Bus1=node_533368540.2 Bus2=node_533368541.2 Switch=Y r1=1e-4 x1=1e-4 r0=1e-4 x0=1e-4 normamps=9999
New Line.345610844 Phases=1 Bus1=node_539743409.3 Bus2=node_539743410.3 Switch=Y r1=1e-4 x1=1e-4 r0=1e-4 x0=1e-4 normamps=9999
New Line.345610794 Phases=1 Bus1=node_539743277.2 Bus2=node_539743278.2 Switch=Y r1=1e-4 x1=1e-4 r0=1e-4 x0=1e-4 normamps=9999
New Line.345785900 Phases=1 Bus1=node_540155026.2 Bus2=node_540155027.2 Switch=Y r1=1e-4 x1=1e-4 r0=1e-4 x0=1e-4 normamps=9999
New Line.1724388840 Phases=3 Bus1=100_1724388891.1.2.3 Bus2=100_1724388892.1.2.3 Switch=Y r1=1e-4 x1=1e-4 r0=1e-4 x0=1e-4 normamps=9999
New Line.345680444 Phases=1 Bus1=node_539869231.2 Bus2=node_539869232.2 Switch=Y r1=1e-4 x1=1e-4 r0=1e-4 x0=1e-4 normamps=9999
New Line.340213011 Phases=1 Bus1=node_534260731.2 Bus2=node_534260732.2 Switch=Y r1=1e-4 x1=1e-4 r0=1e-4 x0=1e-4 normamps=9999
New Line.873554311 Phases=1 Bus1=node_1140298021.1 Bus2=node_1140298022.1 Switch=Y r1=1e-4 x1=1e-4 r0=1e-4 x0=1e-4 normamps=9999
New Line.340213483 Phases=1 Bus1=node_534261825.3 Bus2=node_534261826.3 Switch=Y r1=1e-4 x1=1e-4 r0=1e-4 x0=1e-4 normamps=9999
New Line.337406213 Phases=1 Bus1=node_532432631.3 Bus2=node_532432632.3 Switch=Y r1=1e-4 x1=1e-4 r0=1e-4 x0=1e-4 normamps=9999
New Line.337932067 Phases=1 Bus1=node_532997186.1 Bus2=node_532997187.1 Switch=Y r1=1e-4 x1=1e-4 r0=1e-4 x0=1e-4 normamps=9999
New Line.345566993 Phases=1 Bus1=node_539600265.2 Bus2=node_539600266.2 Switch=Y r1=1e-4 x1=1e-4 r0=1e-4 x0=1e-4 normamps=9999
New Line.345388612 Phases=1 Bus1=node_539351690.2 Bus2=node_539351691.2 Switch=Y r1=1e-4 x1=1e-4 r0=1e-4 x0=1e-4 normamps=9999
New Line.345567388 Phases=1 Bus1=node_539618554.3 Bus2=node_539618555.3 Switch=Y r1=1e-4 x1=1e-4 r0=1e-4 x0=1e-4 normamps=9999
New Line.338970238 Phases=1 Bus1=node_533367383.2 Bus2=node_533367384.2 Switch=Y r1=1e-4 x1=1e-4 r0=1e-4 x0=1e-4 normamps=9999
New Line.349259725 Phases=1 Bus1=100_349259724.2 Bus2=100_349259723.2 Switch=Y r1=1e-4 x1=1e-4 r0=1e-4 x0=1e-4 normamps=9999
New Line.345750421 Phases=1 Bus1=node_540071697.2 Bus2=node_540071698.2 Switch=Y r1=1e-4 x1=1e-4 r0=1e-4 x0=1e-4 normamps=9999
New Line.349258497 Phases=1 Bus1=100_349258496.2 Bus2=100_349258495.2 Switch=Y r1=1e-4 x1=1e-4 r0=1e-4 x0=1e-4 normamps=9999
New Line.337407941 Phases=1 Bus1=node_532552929.1 Bus2=node_532552930.1 Switch=Y r1=1e-4 x1=1e-4 r0=1e-4 x0=1e-4 normamps=9999
New Line.345785888 Phases=1 Bus1=node_540154990.2 Bus2=node_540154991.2 Switch=Y r1=1e-4 x1=1e-4 r0=1e-4 x0=1e-4 normamps=9999
New Line.349258039 Phases=1 Bus1=100_1708226238.1 Bus2=100_1708226237.1 Switch=Y r1=1e-4 x1=1e-4 r0=1e-4 x0=1e-4 normamps=9999
New Line.345388606 Phases=1 Bus1=node_539351672.2 Bus2=node_539351673.2 Switch=Y r1=1e-4 x1=1e-4 r0=1e-4 x0=1e-4 normamps=9999
New Line.345567383 Phases=1 Bus1=node_539618539.3 Bus2=node_539618540.3 Switch=Y r1=1e-4 x1=1e-4 r0=1e-4 x0=1e-4 normamps=9999
New Line.345750452 Phases=1 Bus1=node_540071790.1 Bus2=node_540071791.1 Switch=Y r1=1e-4 x1=1e-4 r0=1e-4 x0=1e-4 normamps=9999
New Line.340971821 Phases=1 Bus1=node_534587607.2 Bus2=node_534587608.2 Switch=Y r1=1e-4 x1=1e-4 r0=1e-4 x0=1e-4 normamps=9999
New Line.345785939 Phases=1 Bus1=node_540159437.2 Bus2=node_540159438.2 Switch=Y r1=1e-4 x1=1e-4 r0=1e-4 x0=1e-4 normamps=9999
New Line.345388636 Phases=1 Bus1=node_539351762.2 Bus2=node_539351763.2 Switch=Y r1=1e-4 x1=1e-4 r0=1e-4 x0=1e-4 normamps=9999
New Line.342004624 Phases=3 Bus1=node_535460580.1.2.3 Bus2=node_535460581.1.2.3 Switch=Y r1=1e-4 x1=1e-4 r0=1e-4 x0=1e-4 normamps=9999
New Line.345704478 Phases=1 Bus1=node_539944410.1 Bus2=node_539944411.1 Switch=Y r1=1e-4 x1=1e-4 r0=1e-4 x0=1e-4 normamps=9999
New Line.345388599 Phases=1 Bus1=node_539351651.2 Bus2=node_539351652.2 Switch=Y r1=1e-4 x1=1e-4 r0=1e-4 x0=1e-4 normamps=9999
New Line.345388649 Phases=1 Bus1=node_539351801.3 Bus2=node_539351802.3 Switch=Y r1=1e-4 x1=1e-4 r0=1e-4 x0=1e-4 normamps=9999
New Line.345606954 Phases=1 Bus1=node_539676785.2 Bus2=node_539676786.2 Switch=Y r1=1e-4 x1=1e-4 r0=1e-4 x0=1e-4 normamps=9999
New Line.345750465 Phases=1 Bus1=node_540071829.2 Bus2=node_540071830.2 Switch=Y r1=1e-4 x1=1e-4 r0=1e-4 x0=1e-4 normamps=9999
New Line.345388618 Phases=1 Bus1=node_539351708.2 Bus2=node_539351709.2 Switch=Y r1=1e-4 x1=1e-4 r0=1e-4 x0=1e-4 normamps=9999
New Line.345610800 Phases=1 Bus1=node_539743295.2 Bus2=node_539743296.2 Switch=Y r1=1e-4 x1=1e-4 r0=1e-4 x0=1e-4 normamps=9999
New Line.345566974 Phases=1 Bus1=node_539600208.2 Bus2=node_539600209.2 Switch=Y r1=1e-4 x1=1e-4 r0=1e-4 x0=1e-4 normamps=9999
New Line.337406301 Phases=1 Bus1=node_532432859.1 Bus2=node_532432860.1 Switch=Y r1=1e-4 x1=1e-4 r0=1e-4 x0=1e-4 normamps=9999
New Line.341844997 Phases=1 Bus1=node_535458778.2 Bus2=node_535458779.2 Switch=Y r1=1e-4 x1=1e-4 r0=1e-4 x0=1e-4 normamps=9999
New Line.338970799 Phases=1 Bus1=node_533368687.1 Bus2=node_533368688.1 Switch=Y r1=1e-4 x1=1e-4 r0=1e-4 x0=1e-4 normamps=9999
New Line.345750484 Phases=1 Bus1=node_540071886.2 Bus2=node_540071887.2 Switch=Y r1=1e-4 x1=1e-4 r0=1e-4 x0=1e-4 normamps=9999
New Line.339768776 Phases=1 Bus1=node_533795291.2 Bus2=node_533795292.2 Switch=Y r1=1e-4 x1=1e-4 r0=1e-4 x0=1e-4 normamps=9999
New Line.345772300 Phases=1 Bus1=node_540119812.2 Bus2=node_540119813.2 Switch=Y r1=1e-4 x1=1e-4 r0=1e-4 x0=1e-4 normamps=9999
New Line.345680468 Phases=1 Bus1=node_539869303.2 Bus2=node_539869304.2 Switch=Y r1=1e-4 x1=1e-4 r0=1e-4 x0=1e-4 normamps=9999
New Line.341571499 Phases=1 Bus1=node_534990850.1 Bus2=node_534990851.1 Switch=Y r1=1e-4 x1=1e-4 r0=1e-4 x0=1e-4 normamps=9999
New Line.345785932 Phases=1 Bus1=node_540155122.1 Bus2=node_540155123.1 Switch=Y r1=1e-4 x1=1e-4 r0=1e-4 x0=1e-4 normamps=9999
New Line.338970601 Phases=1 Bus1=node_533368225.2 Bus2=node_533368226.2 Switch=Y r1=1e-4 x1=1e-4 r0=1e-4 x0=1e-4 normamps=9999
New Line.345566962 Phases=1 Bus1=node_539600172.2 Bus2=node_539600173.2 Switch=Y r1=1e-4 x1=1e-4 r0=1e-4 x0=1e-4 normamps=9999
New Line.345680437 Phases=1 Bus1=node_539869210.2 Bus2=node_539869211.2 Switch=Y r1=1e-4 x1=1e-4 r0=1e-4 x0=1e-4 normamps=9999
New Line.345610788 Phases=1 Bus1=node_539743259.2 Bus2=node_539743260.2 Switch=Y r1=1e-4 x1=1e-4 r0=1e-4 x0=1e-4 normamps=9999
New Line.345796110 Phases=1 Bus1=node_540180657.2 Bus2=node_540180658.2 Switch=Y r1=1e-4 x1=1e-4 r0=1e-4 x0=1e-4 normamps=9999
New Line.349259621 Phases=1 Bus1=100_349259619.2 Bus2=100_349259620.2 Switch=Y r1=1e-4 x1=1e-4 r0=1e-4 x0=1e-4 normamps=9999
New Line.345567010 Phases=1 Bus1=node_539600316.2 Bus2=node_539600317.2 Switch=Y r1=1e-4 x1=1e-4 r0=1e-4 x0=1e-4 normamps=9999
New Line.345750458 Phases=1 Bus1=node_540071808.2 Bus2=node_540071809.2 Switch=Y r1=1e-4 x1=1e-4 r0=1e-4 x0=1e-4 normamps=9999
New Line.345785919 Phases=1 Bus1=node_540155083.1 Bus2=node_540155084.1 Switch=Y r1=1e-4 x1=1e-4 r0=1e-4 x0=1e-4 normamps=9999
New Line.339768022 Phases=1 Bus1=node_533793386.1 Bus2=node_533793387.1 Switch=Y r1=1e-4 x1=1e-4 r0=1e-4 x0=1e-4 normamps=9999
New Line.345785913 Phases=1 Bus1=node_540155065.2 Bus2=node_540155066.2 Switch=Y r1=1e-4 x1=1e-4 r0=1e-4 x0=1e-4 normamps=9999
New Line.198159965 Phases=3 Bus1=100_387380986.1.2.3 Bus2=198159965_pac.1.2.3 Switch=Y r1=1e-4 x1=1e-4 r0=1e-4 x0=1e-4 normamps=9999
New Line.198159979 Phases=3 Bus1=100_387380944.1.2.3 Bus2=198159979_pac.1.2.3 Switch=Y r1=1e-4 x1=1e-4 r0=1e-4 x0=1e-4 normamps=9999
New Line.198159951 Phases=3 Bus1=100_387380985.1.2.3 Bus2=198159951_pac.1.2.3 Switch=Y r1=1e-4 x1=1e-4 r0=1e-4 x0=1e-4 normamps=9999
New Line.198159993 Phases=3 Bus1=100_387380955.1.2.3 Bus2=198159993_pac.1.2.3 Switch=Y r1=1e-4 x1=1e-4 r0=1e-4 x0=1e-4 normamps=9999
New Line.198159923 Phases=3 Bus1=segm_2571269233.1.2.3 Bus2=100_387380944.1.2.3 Switch=Y r1=1e-4 x1=1e-4 r0=1e-4 x0=1e-4 normamps=9999
New Line.198159895 Phases=3 Bus1=segm_2571269318.1.2.3 Bus2=100_387380985.1.2.3 Switch=Y r1=1e-4 x1=1e-4 r0=1e-4 x0=1e-4 normamps=9999
New Line.198159937 Phases=3 Bus1=segm_2571269211.1.2.3 Bus2=100_387380955.1.2.3 Switch=Y r1=1e-4 x1=1e-4 r0=1e-4 x0=1e-4 normamps=9999
New Line.198159909 Phases=3 Bus1=segm_2571269278.1.2.3 Bus2=100_387380986.1.2.3 Switch=Y r1=1e-4 x1=1e-4 r0=1e-4 x0=1e-4 normamps=9999
